Input Parameters:
   integrator           = md
   nsteps               = 50000
   init_step            = 0
   ns_type              = Grid
   nstlist              = 6
   ndelta               = 2
   nstcomm              = 10
   comm_mode            = Linear
   nstlog               = 10000
   nstxout              = 0
   nstvout              = 0
   nstfout              = 0
   nstcalcenergy        = 6
   nstenergy            = 120
   nstxtcout            = 500
   init_t               = 0
   delta_t              = 0.0002
   xtcprec              = 500
   nkx                  = 40
   nky                  = 40
   nkz                  = 40
   pme_order            = 4
   ewald_rtol           = 1e-05
   ewald_geometry       = 0
   epsilon_surface      = 0
   optimize_fft         = FALSE
   ePBC                 = xyz
   bPeriodicMols        = FALSE
   bContinuation        = FALSE
   bShakeSOR            = FALSE
   etc                  = V-rescale
   nsttcouple           = 6
   epc                  = Berendsen
   epctype              = Isotropic
   nstpcouple           = 6
   tau_p                = 10
   ref_p (3x3):
      ref_p[    0]={ 1.00000e+00,  0.00000e+00,  0.00000e+00}
      ref_p[    1]={ 0.00000e+00,  1.00000e+00,  0.00000e+00}
      ref_p[    2]={ 0.00000e+00,  0.00000e+00,  1.00000e+00}
   compress (3x3):
      compress[    0]={ 1.00000e-04,  0.00000e+00,  0.00000e+00}
      compress[    1]={ 0.00000e+00,  1.00000e-04,  0.00000e+00}
      compress[    2]={ 0.00000e+00,  0.00000e+00,  1.00000e-04}
   refcoord_scaling     = No
   posres_com (3):
      posres_com[0]= 0.00000e+00
      posres_com[1]= 0.00000e+00
      posres_com[2]= 0.00000e+00
   posres_comB (3):
      posres_comB[0]= 0.00000e+00
      posres_comB[1]= 0.00000e+00
      posres_comB[2]= 0.00000e+00
   andersen_seed        = 815131
   rlist                = 1
   rlistlong            = 1
   rtpi                 = 0.05
   coulombtype          = PME
   rcoulomb_switch      = 0
   rcoulomb             = 1
   vdwtype              = Cut-off
   rvdw_switch          = 0
   rvdw                 = 1
   epsilon_r            = 1
   epsilon_rf           = 1
   tabext               = 5
   implicit_solvent     = No
   gb_algorithm         = Still
   gb_epsilon_solvent   = 80
   nstgbradii           = 1
   rgbradii             = 1
   gb_saltconc          = 0
   gb_obc_alpha         = 1
   gb_obc_beta          = 0.8
   gb_obc_gamma         = 4.85
   gb_dielectric_offset = 0.009
   sa_algorithm         = Ace-approximation
   sa_surface_tension   = 2.05016
   DispCorr             = No
   free_energy          = no
   init_lambda          = 0
   delta_lambda         = 0
   n_foreign_lambda     = 0
   sc_alpha             = 0
   sc_power             = 0
   sc_sigma             = 0.3
   sc_sigma_min         = 0.3
   nstdhdl              = 10
   separate_dhdl_file   = yes
   dhdl_derivatives     = yes
   dh_hist_size         = 0
   dh_hist_spacing      = 0.1
   nwall                = 0
   wall_type            = 9-3
   wall_atomtype[0]     = -1
   wall_atomtype[1]     = -1
   wall_density[0]      = 0
   wall_density[1]      = 0
   wall_ewald_zfac      = 3
   pull                 = no
   disre                = No
   disre_weighting      = Conservative
   disre_mixed          = FALSE
   dr_fc                = 1000
   dr_tau               = 0
   nstdisreout          = 100
   orires_fc            = 0
   orires_tau           = 0
   nstorireout          = 100
   dihre-fc             = 1000
   em_stepsize          = 0.01
   em_tol               = 10
   niter                = 20
   fc_stepsize          = 0
   nstcgsteep           = 1000
   nbfgscorr            = 10
   ConstAlg             = Lincs
   shake_tol            = 0.0001
   lincs_order          = 6
   lincs_warnangle      = 90
   lincs_iter           = 1
   bd_fric              = 0
   ld_seed              = 1993
   cos_accel            = 0
   deform (3x3):
      deform[    0]={ 0.00000e+00,  0.00000e+00,  0.00000e+00}
      deform[    1]={ 0.00000e+00,  0.00000e+00,  0.00000e+00}
      deform[    2]={ 0.00000e+00,  0.00000e+00,  0.00000e+00}
   userint1             = 0
   userint2             = 0
   userint3             = 0
   userint4             = 0
   userreal1            = 0
   userreal2            = 0
   userreal3            = 0
   userreal4            = 0
grpopts:
   nrdf:          42
   ref_t:         298
   tau_t:           5
anneal:          No
ann_npoints:           0
   acc:	           0           0           0
   nfreeze:           N           N           N
   energygrp_flags[  0]: 0
   efield-x:
      n = 0
   efield-xt:
      n = 0
   efield-y:
      n = 0
   efield-yt:
      n = 0
   efield-z:
      n = 0
   efield-zt:
      n = 0
   bQMMM                = FALSE
   QMconstraints        = 0
   QMMMscheme           = 0
   scalefactor          = 1
qm_opts:
   ngQM                 = 0
Table routines are used for coulomb: TRUE
Table routines are used for vdw:     FALSE
Will do PME sum in reciprocal space.

Will do ordinary reciprocal space Ewald sum.
Using a Gaussian width (1/beta) of 0.320163 nm for Ewald
Cut-off's:   NS: 1   Coulomb: 1   LJ: 1
System total charge: -0.000
Generated table with 3000 data points for Ewald.
Tabscale = 500 points/nm
Generated table with 3000 data points for LJ6.
Tabscale = 500 points/nm
Generated table with 3000 data points for LJ12.
Tabscale = 500 points/nm
Generated table with 3000 data points for 1-4 COUL.
Tabscale = 500 points/nm
Generated table with 3000 data points for 1-4 LJ6.
Tabscale = 500 points/nm
Generated table with 3000 data points for 1-4 LJ12.
Tabscale = 500 points/nm
Configuring nonbonded kernels...
Configuring standard C nonbonded kernels...
Testing x86_64 SSE2 support... present.

Removing pbc first time

Initializing LINear Constraint Solver

The number of constraints is 21
Center of mass motion removal mode is Linear
We have the following groups for center of mass motion removal:
  0:  rest

There are: 22 Atoms
Max number of connections per atom is 92
Total number of connections is 616
Max number of graph edges per atom is 4
Total number of graph edges is 42

Constraining the starting coordinates (step 0)

Constraining the coordinates at t0-dt (step 0)
RMS relative constraint deviation after constraining: 9.85e-07
Initial temperature: 0.379664 K

Started mdrun on node 0 Tue Jul 24 10:36:47 2012

           Step           Time         Lambda
              0        0.00000        0.00000

   Energies (kJ/mol)
          Angle    Proper Dih.  Improper Dih.          LJ-14     Coulomb-14
    4.61128e+01    6.14315e+01    1.57027e-01    1.93368e+01    1.90717e+02
        LJ (SR)   Coulomb (SR)   Coul. recip.      Potential    Kinetic En.
    1.68179e+01   -6.99463e+01   -2.80814e+02   -1.61873e+01    9.39112e-02
   -1.60934e+01    5.37850e-01   -3.43802e+02    1.00649e-06

	<====  A V E R A G E S  ====>

	Statistics over 50001 steps using 8334 frames

   Energies (kJ/mol)
          Angle    Proper Dih.  Improper Dih.          LJ-14     Coulomb-14
    2.88559e+01    4.83026e+01    2.09568e+00    1.49251e+01    1.98148e+02
        LJ (SR)   Coulomb (SR)   Coul. recip.      Potential    Kinetic En.
   -3.53997e+00   -5.51495e+01   -2.81733e+02   -4.80957e+01    3.82817e+01
   Total Energy    Temperature Pressure (bar)   Constr. rmsd
   -9.81399e+00    2.19248e+02   -4.14262e-02    0.00000e+00

          Box-X          Box-Y          Box-Z
    4.72893e+00    4.72893e+00    4.72893e+00

   Total Virial (kJ/mol)
    1.17450e+01    1.22649e+00    3.81279e-01
    1.22648e+00    1.29453e+01   -4.17298e-01
    3.81275e-01   -4.17301e-01    1.39872e+01

   Pressure (bar)
    9.67091e-03    1.47647e-03   -2.98497e-02
    1.47711e-03   -3.14271e-02    1.49896e-02
   -2.98485e-02    1.49907e-02   -1.02523e-01

   Total Dipole (D)
   -7.63022e-01    4.41757e-01   -7.47387e-01
